# CIF file
# This file was generated by FINDSYM
# Harold T. Stokes, Branton J. Campbell, Dorian M. Hatch
# Brigham Young University, Provo, Utah, USA
 
data_findsym-output
 
_symmetry_space_group_name_H-M 'P 1'
_symmetry_Int_Tables_number 1
 
_cell_length_a       7.72700
_cell_length_b       7.51100
_cell_length_c       7.67500
_cell_angle_alpha   60.80300
_cell_angle_beta   118.96300
_cell_angle_gamma  118.95600
 
loop_
_space_group_symop_operation_xyz
x,y,z
 
loop_
_atom_site_label
_atom_site_type_symbol
_atom_site_fract_x
_atom_site_fract_y
_atom_site_fract_z
_atom_site_occupancy
Ba1 Ba   0.48696   0.46107   0.48313   1.00000
Ba2 Ba  -0.00691  -0.03146  -0.01115   1.00000
Ba3 Ba   0.48927  -0.04802   0.49273   1.00000
Ba4 Ba  -0.00643   0.45997  -0.00329   1.00000
Ba5 Ba  -0.00514  -0.49087   0.49460   1.00000
Ba6 Ba   0.49522   0.02179  -0.00318   1.00000
Ba7 Ba   0.00365   0.02142   0.49413   1.00000
Ba8 Ba   0.49604  -0.49980   0.00750   1.00000
H1  H   -0.34209   0.35848  -0.17877   1.00000
H2  H    0.22995  -0.44111   0.25528   1.00000
H3  H   -0.46098   0.12896  -0.30954   1.00000
H4  H    0.31709  -0.39014  -0.49048   1.00000
H5  H    0.34692   0.14461  -0.32254   1.00000
H6  H    0.19972   0.33228  -0.42830   1.00000
H7  H   -0.20358  -0.30211   0.42690   1.00000
H8  H   -0.47811  -0.30631   0.19236   1.00000
H9  H   -0.37977  -0.39253  -0.26799   1.00000
H10 H   0.28026   0.11690   0.41818   1.00000
H11 H   0.33358  -0.48137   0.14774   1.00000
H12 H  -0.32480  -0.19432   0.48291   1.00000
H13 H  -0.27065  -0.39050   0.35535   1.00000
H14 H  -0.26159  -0.26906  -0.41683   1.00000
H15 H   0.36621   0.39084  -0.27358   1.00000
H16 H   0.27969   0.21442  -0.34396   1.00000
H17 H   0.27468   0.38365   0.20761   1.00000
H18 H  -0.23734  -0.40572  -0.26686   1.00000
H19 H  -0.48413  -0.36554  -0.32179   1.00000
H20 H   0.34374   0.10330  -0.46152   1.00000
H21 H   0.38624  -0.23863   0.28298   1.00000
H22 H  -0.18594  -0.48070  -0.35021   1.00000
H23 H   0.25587  -0.40761   0.39794   1.00000
H24 H  -0.32690   0.28519  -0.21274   1.00000
H25 H  -0.16278  -0.37708   0.01406   1.00000
H26 H  -0.05301   0.11145   0.14803   1.00000
H27 H   0.39536   0.24377   0.28409   1.00000
H28 H  -0.20378  -0.13054  -0.30565   1.00000
H29 H  -0.20998   0.11799  -0.03176   1.00000
H30 H   0.00261  -0.39347   0.17760   1.00000
H31 H  -0.32844   0.28961  -0.48155   1.00000
H32 H  -0.49505  -0.19240   0.31467   1.00000
H33 H   0.46667   0.35674  -0.19715   1.00000
H34 H  -0.04947   0.17444  -0.34218   1.00000
H35 H  -0.21024  -0.29015   0.16478   1.00000
H36 H  -0.28389  -0.12742   0.28126   1.00000
H37 H   0.17498   0.30041   0.01259   1.00000
H38 H  -0.06383  -0.23466  -0.20918   1.00000
H39 H  -0.32774  -0.21439  -0.18933   1.00000
H40 H   0.21155   0.05533   0.27503   1.00000
H41 H   0.18291  -0.19436   0.02756   1.00000
H42 H  -0.19054   0.40261  -0.31848   1.00000
H43 H   0.18641  -0.18923   0.30159   1.00000
H44 H  -0.37423   0.06867  -0.23703   1.00000
H45 H  -0.39290  -0.24806   0.12955   1.00000
H46 H   0.03416  -0.11713   0.31037   1.00000
H47 H   0.22253   0.38199  -0.23410   1.00000
H48 H   0.17264   0.01277  -0.18272   1.00000
H49 H   0.23144   0.22148   0.11669   1.00000
H50 H   0.05565  -0.17192  -0.16543   1.00000
H51 H  -0.34542  -0.14652  -0.15220   1.00000
H52 H   0.06725   0.14151   0.20013   1.00000
H53 H   0.22976  -0.28490   0.12720   1.00000
H54 H  -0.04364   0.29346  -0.19771   1.00000
H55 H   0.30128  -0.05179   0.17834   1.00000
H56 H  -0.24055   0.07344  -0.27219   1.00000
H57 H  -0.30543  -0.13609   0.03353   1.00000
H58 H  -0.08256  -0.17134   0.29316   1.00000
H59 H   0.14913   0.36582  -0.17646   1.00000
H60 H   0.24599   0.14250  -0.13413   1.00000
H61 H  -0.21699  -0.35920  -0.10294   1.00000
H62 H   0.18795   0.29434   0.30678   1.00000
H63 H  -0.48507   0.30054   0.32906   1.00000
H64 H  -0.19087  -0.00765  -0.34461   1.00000
H65 H  -0.15169   0.20186  -0.12599   1.00000
H66 H   0.09885  -0.29727   0.22767   1.00000
H67 H  -0.25520   0.21875  -0.39141   1.00000
H68 H   0.36188   0.07504   0.15360   1.00000
H69 H   0.30738   0.20284  -0.04212   1.00000
H70 H   0.06868   0.20361  -0.31799   1.00000
H71 H  -0.17524  -0.37418   0.17200   1.00000
H72 H  -0.21935  -0.05563   0.20032   1.00000
H73 H   0.32315  -0.31976   0.00116   1.00000
H74 H  -0.04433  -0.31569  -0.36633   1.00000
H75 H   0.33963  -0.37682  -0.32999   1.00000
H76 H   0.21100  -0.16227  -0.41188   1.00000
H77 H   0.25130  -0.25133  -0.10060   1.00000
H78 H   0.19214  -0.42629  -0.18797   1.00000
H79 H   0.17345  -0.15866   0.47458   1.00000
H80 H   0.37917  -0.13532  -0.24147   1.00000
H81 H   0.47330  -0.17866  -0.15826   1.00000
H82 H   0.07129  -0.29489  -0.29782   1.00000
H83 H   0.27055  -0.35731  -0.26904   1.00000
H84 H   0.23634  -0.11771  -0.25086   1.00000
H85 H  -0.27111   0.36523   0.09828   1.00000
H86 H   0.07859   0.37219   0.34759   1.00000
H87 H  -0.33498   0.46772   0.32823   1.00000
H88 H  -0.33289  -0.01163   0.33692   1.00000
H89 H  -0.18774   0.17815   0.17482   1.00000
H90 H  -0.04538   0.33535   0.31225   1.00000
H91 H  -0.30454   0.24534   0.32361   1.00000
H92 H  -0.43817   0.20147   0.20768   1.00000
H93 H  -0.34617   0.35763  -0.02808   1.00000
H94 H  -0.20441   0.19410   0.44340   1.00000
H95 H  -0.19793   0.42870   0.20345   1.00000
H96 H  -0.26232   0.12266   0.25664   1.00000
 
# end_of_file
