# CIF file
# This file was generated by FINDSYM
# Harold T. Stokes, Branton J. Campbell, Dorian M. Hatch
# Brigham Young University, Provo, Utah, USA
 
data_findsym-output
 
_symmetry_space_group_name_H-M 'P 1 21 1'
_symmetry_Int_Tables_number 4
 
_cell_length_a       5.67100
_cell_length_b       5.68000
_cell_length_c       5.69600
_cell_angle_alpha   90.00000
_cell_angle_beta    89.14000
_cell_angle_gamma   90.00000
 
loop_
_space_group_symop_operation_xyz
x,y,z
-x,y+1/2,-z
 
loop_
_atom_site_label
_atom_site_type_symbol
_atom_site_fract_x
_atom_site_fract_y
_atom_site_fract_z
_atom_site_occupancy
Ba1 Ba   0.48898   0.15461   0.27182   1.00000
Ba2 Ba  -0.00803  -0.32286   0.22970   1.00000
H1  H   -0.15347   0.07955   0.42437   1.00000
H2  H    0.32699  -0.17032   0.39073   1.00000
H3  H    0.13436  -0.33536  -0.14563   1.00000
H4  H   -0.28338  -0.13381   0.45116   1.00000
H5  H   -0.20964  -0.13287  -0.06154   1.00000
H6  H   -0.36597  -0.19893   0.36292   1.00000
H7  H   -0.12778  -0.18931  -0.15880   1.00000
H8  H   -0.16618   0.01101   0.12828   1.00000
H9  H   -0.37186  -0.22286   0.11640   1.00000
H10 H  -0.13298  -0.45936  -0.13013   1.00000
H11 H   0.41449   0.00470  -0.09713   1.00000
H12 H  -0.36975  -0.45682   0.33925   1.00000
H13 H   0.11942   0.01714   0.40230   1.00000
H14 H   0.36450  -0.34328   0.35438   1.00000
H15 H   0.11237   0.16514   0.38706   1.00000
H16 H   0.07268   0.35159   0.41554   1.00000
H17 H   0.33426  -0.48827   0.34485   1.00000
H18 H  -0.44539   0.00033  -0.08554   1.00000
H19 H   0.20752  -0.03499   0.04373   1.00000
H20 H  -0.30826   0.45751   0.42605   1.00000
H21 H  -0.32716   0.21747  -0.06362   1.00000
H22 H  -0.16018   0.32644   0.16387   1.00000
H23 H  -0.15047   0.21983   0.41730   1.00000
H24 H  -0.45781   0.27609  -0.10868   1.00000
 
# end_of_file
