
#######################################################################
#
#                 Cambridge Crystallographic Data Centre
#                                CCDC 
#
#######################################################################
#
# If this CIF has been generated from an entry in the Cambridge 
# Structural Database, then it will include bibliographic, chemical, 
# crystal, experimental, refinement or atomic coordinate data resulting 
# from the CCDC's data processing and validation procedures.
#
#######################################################################

data_findsym-output
_symmetry_cell_setting           monoclinic
_symmetry_space_group_name_H-M   'P 21'
_symmetry_Int_Tables_number      4
_space_group_name_Hall           'P 2yb'
loop_
_symmetry_equiv_pos_site_id
_symmetry_equiv_pos_as_xyz
1 x,y,z
2 -x,1/2+y,-z
_cell_length_a                   5.46200
_cell_length_b                   5.51400
_cell_length_c                   5.51400
_cell_angle_alpha                90.00000
_cell_angle_beta                 89.35100
_cell_angle_gamma                90.00000
_cell_volume                     166.057
loop_
_atom_site_label
_atom_site_type_symbol
_atom_site_fract_x
_atom_site_fract_y
_atom_site_fract_z
Ba1 Ba 0.48460 0.16288 0.27181
Ba2 Ba -0.01301 -0.33312 0.22845
H1 H -0.15533 0.09071 0.42612
H2 H 0.31936 -0.16502 0.37603
H4 H 0.12822 -0.34650 -0.15100
H5 H -0.28921 -0.12938 0.44329
H6 H -0.21294 -0.12717 -0.05641
H7 H -0.37488 -0.20024 0.35571
H8 H -0.12458 -0.19785 -0.14400
H9 H -0.17247 0.00076 0.14518
H10 H -0.38710 -0.20512 0.11500
H13 H -0.13060 -0.46983 -0.13562
H16 H 0.39717 0.01551 -0.10290
H18 H -0.37675 -0.45958 0.34763
H19 H 0.10333 0.00969 0.39987
H21 H 0.36826 -0.32842 0.35221
H22 H 0.10721 0.16772 0.38177
H23 H 0.09193 0.34581 0.41362
H24 H 0.33751 -0.48387 0.35569
H3 H 0.54878 0.01689 -0.09278
H11 H 0.21009 -0.04841 0.04815
H12 H 0.69917 0.45752 0.43174
H14 H 0.67223 0.17731 -0.06437
H15 H 0.84157 0.31840 0.15846
H17 H 0.84910 0.23521 0.42021
H20 H 0.55409 0.28849 -0.10490
Ba1 Ba -0.51540 -0.83712 0.27181
Ba1 Ba -0.51540 0.16288 0.27181
Ba1 Ba 0.48460 -0.83712 0.27181
Ba1 Ba -0.48460 -0.33712 -0.27181
Ba1 Ba -0.48460 -0.33712 0.72819
Ba1 Ba 0.51540 -0.33712 -0.27181
Ba1 Ba 0.51540 -0.33712 0.72819
Ba1 Ba 0.51540 0.66288 -0.27181
Ba1 Ba 0.51540 0.66288 0.72819
Ba2 Ba -0.01301 0.66688 0.22845
Ba2 Ba 0.98699 0.66688 0.22845
Ba2 Ba 0.01301 -0.83312 -0.22845
Ba2 Ba 0.01301 0.16688 -0.22845
Ba2 Ba 0.01301 0.16688 0.77155
Ba2 Ba 1.01301 0.16688 -0.22845
Ba2 Ba 1.01301 0.16688 0.77155
H1 H 0.84467 0.09071 0.42612
H1 H 0.15533 -0.40929 0.57388
H2 H 0.68064 0.33498 0.62397
H4 H -0.12822 0.15350 0.15100
H4 H 0.87178 0.15350 0.15100
H5 H 0.71079 -0.12938 0.44329
H5 H 0.28921 0.37062 0.55671
H6 H 0.21294 -0.62717 0.05641
H6 H 0.21294 0.37283 0.05641
H7 H 0.62512 -0.20024 0.35571
H7 H 0.37488 0.29976 0.64429
H8 H 0.12458 -0.69785 0.14400
H8 H 0.12458 0.30215 0.14400
H9 H 0.82753 0.00076 0.14518
H9 H 0.17247 -0.49924 -0.14518
H10 H 0.61290 -0.20512 0.11500
H10 H 0.38710 0.29488 -0.11500
H13 H 0.13060 0.03017 0.13562
H16 H -0.39717 -0.48449 0.10290
H16 H 0.60283 0.51551 0.10290
H18 H 0.62325 0.54042 0.34763
H18 H 0.37675 0.04042 0.65237
H19 H -0.10333 -0.49031 0.60013
H21 H 0.63174 0.17158 0.64779
H22 H -0.10721 -0.33228 0.61823
H23 H 0.09193 -0.65419 0.41362
H23 H -0.09193 -0.15419 0.58638
H24 H 0.33751 0.51613 0.35569
H24 H 0.66249 0.01613 0.64431
H3 H 0.45122 -0.48311 0.09278
H3 H 0.45122 0.51689 0.09278
H11 H -0.21009 -0.54841 -0.04815
H12 H -0.30083 -0.54248 0.43174
H12 H 0.30083 -0.04248 0.56826
H14 H 0.32777 -0.32269 0.06437
H15 H -0.15843 -0.68160 0.15846
H15 H 0.15843 -0.18160 -0.15846
H17 H -0.15090 -0.76479 0.42021
H17 H 0.15090 -0.26479 0.57979
H20 H 0.44591 -0.21151 0.10490

#END
